! FORCING_DURATION 10


! DIAGNOSTIC COORDINATE

NUM_DIAG_COORDS = 1
DIAG_COORDS = "z Z ZSTAR" !

DIAG_COORD_DEF_Z = "FILE:vcoord.nc,interfaces=zi" ! default = "WOA09"

#override ADIABATIC = True
#override RHO_0 = 1027.0
#override ADIABATIC = True
#override RHO_0 = 1027.0
#override NJGLOBAL=2000
#override NIGLOBAL=2000
#override LENLON = 4000.0
#override WESTLON = -2000.0
#override LENLAT = 4000.0
#override WESTLAT = -2000.0
#override NK = 50
